* TSMC 13 SACI

.subckt SaciSlave2 rst ack addr[0] addr[1] addr[2] addr[3] addr[4] addr[5] addr[6] addr[7] addr[8] addr[9] addr[10] addr[11] clk cmd[0] cmd[1] cmd[2] cmd[3] cmd[4] cmd[5] cmd[6] exec rdData[0] rdData[1] rdData[2] rdData[3] rdData[4] rdData[5] rdData[6] rdData[7] rdData[8] rdData[9] rdData[10] rdData[11] rdData[12] rdData[13] rdData[14] rdData[15] rdData[16] rdData[17] rdData[18] rdData[19] rdData[20] rdData[21] rdData[22] rdData[23] rdData[24] rdData[25] rdData[26] rdData[27] rdData[28] rdData[29] rdData[30] rdData[31] readL rstL rstOutL saciCmd saciRsp saciSelL wrData[0] wrData[1] wrData[2] wrData[3] wrData[4] wrData[5] wrData[6] wrData[7] wrData[8] wrData[9] wrData[10] wrData[11] wrData[12] wrData[13] wrData[14] wrData[15] wrData[16] wrData[17] wrData[18] wrData[19] wrData[20] wrData[21] wrData[22] wrData[23] wrData[24] wrData[25] wrData[26] wrData[27] wrData[28] wrData[29] wrData[30] wrData[31]

MU9413/2/1 G_DS CLK U9413/2/2 G_DS pch sa=-1 sb=-1 w=3e-007 l=1.3e-007 as=1.395e-013 ad=8.1e-014 pd=8.4e-007 ps=1.53e-006 nrd=0.9 nrs=1.55  $(-98.32 43.805 -98.19 44.105)
MU9413/2/2 U9413/2/CLK U9413/2/2 G_DS G_DS pch sa=-1 sb=-1 w=3e-007 l=1.3e-007 as=8.1e-014 ad=1.395e-013 pd=1.53e-006 ps=8.4e-007 nrd=1.55 nrs=0.9  $(-97.74 43.805 -97.61 44.105)
MU9413/2/3 G_DS CLK U9413/2/3 G_DS pch sa=-1 sb=-1 w=3e-007 l=1.3e-007 as=1.395e-013 ad=8.1e-014 pd=8.4e-007 ps=1.53e-006 nrd=0.9 nrs=1.55  $(-96.56 43.805 -96.43 44.105)
MU9413/2/4 U9413/2/CLK U9413/2/3 G_DS G_DS pch sa=-1 sb=-1 w=3e-007 l=1.3e-007 as=8.1e-014 ad=1.395e-013 pd=1.53e-006 ps=8.4e-007 nrd=1.55 nrs=0.9  $(-95.98 43.805 -95.85 44.105)
MU9413/2/5 G_DS U9413/2/CLK U9413/2/4 G_DS pch sa=-1 sb=-1 w=3e-007 l=1.3e-007 as=1.395e-013 ad=8.1e-014 pd=8.4e-007 ps=1.53e-006 nrd=0.9 nrs=1.55  $(-94.8 43.805 -94.67 44.105)
MU9413/2/6 U9413/2/5 U9413/2/4 G_DS G_DS pch sa=-1 sb=-1 w=3e-007 l=1.3e-007 as=8.1e-014 ad=1.395e-013 pd=1.53e-006 ps=8.4e-007 nrd=1.55 nrs=0.9  $(-94.22 43.805 -94.09 44.105)
MU9413/2/7 U9413/2/6 U9413/2/ix421/OUT G_DS G_DS pch sa=-1 sb=-1 w=3.9e-007 l=1.3e-007 as=1.4625e-013 ad=7.5075e-014 pd=7.75e-007 ps=1.53e-006 nrd=0.49359 nrs=0.961538  $(-93.13 43.805 -93 44.195)
MU9413/2/8 U9413/2/8 U9413/2/5 U9413/2/6 G_DS pch sa=-1 sb=-1 w=3.9e-007 l=1.3e-007 as=7.5075e-014 ad=1.4625e-013 pd=1.53e-006 ps=7.75e-007 nrd=0.961538 nrs=0.49359  $(-92.615 43.805 -92.485 44.195)
MU9413/2/9 U9413/2/9 U9413/2/8 G_DS G_DS pch sa=-1 sb=-1 w=3e-007 l=1.3e-007 as=1.395e-013 ad=1.395e-013 pd=1.53e-006 ps=1.53e-006 nrd=1.55 nrs=1.55  $(-91.525 43.805 -91.395 44.105)
MU9413/2/10 U9413/2/10 U9413/2/4 U9413/2/8 G_DS pch sa=-1 sb=-1 w=3.9e-007 l=1.3e-007 as=1.4625e-013 ad=9.555e-014 pd=8.8e-007 ps=1.53e-006 nrd=0.628205 nrs=0.961538  $(-90.435 43.805 -90.305 44.195)
MU9413/2/11 G_DS U9413/2/CLB U9413/2/10 G_DS pch sa=-1 sb=-1 w=3.9e-007 l=1.3e-007 as=9.555e-014 ad=9.555e-014 pd=8.8e-007 ps=8.8e-007 nrd=0.628205 nrs=0.628205  $(-89.815 43.805 -89.685 44.195)
MU9413/2/12 U9413/2/10 U9413/2/9 G_DS G_DS pch sa=-1 sb=-1 w=3.9e-007 l=1.3e-007 as=9.555e-014 ad=1.4625e-013 pd=1.53e-006 ps=8.8e-007 nrd=0.961538 nrs=0.628205  $(-89.195 43.805 -89.065 44.195)
MU9413/2/13 U9413/2/11 U9413/2/9 G_DS G_DS pch sa=-1 sb=-1 w=3.9e-007 l=1.3e-007 as=1.4625e-013 ad=3.51e-014 pd=5.7e-007 ps=1.53e-006 nrd=0.230769 nrs=0.961538  $(-88.105 43.805 -87.975 44.195)
MU9413/2/14 U9413/2/12 U9413/2/4 U9413/2/11 G_DS pch sa=-1 sb=-1 w=3.9e-007 l=1.3e-007 as=3.51e-014 ad=1.4625e-013 pd=1.53e-006 ps=5.7e-007 nrd=0.961538 nrs=0.230769  $(-87.795 43.805 -87.665 44.195)
MU9413/2/15 U9413/2/13 U9413/2/12 G_DS G_DS pch sa=-1 sb=-1 w=3e-007 l=1.3e-007 as=1.395e-013 ad=1.395e-013 pd=1.53e-006 ps=1.53e-006 nrd=1.55 nrs=1.55  $(-86.085 43.805 -85.955 44.105)
MU9413/2/16 U9413/2/14 U9413/2/5 U9413/2/12 G_DS pch sa=-1 sb=-1 w=3.9e-007 l=1.3e-007 as=1.4625e-013 ad=8.775e-014 pd=8.4e-007 ps=1.53e-006 nrd=0.576923 nrs=0.961538  $(-84.995 43.805 -84.865 44.195)
MU9413/2/17 G_DS U9413/2/CLB U9413/2/14 G_DS pch sa=-1 sb=-1 w=3.9e-007 l=1.3e-007 as=8.775e-014 ad=9.53804e-014 pd=9.49565e-007 ps=8.4e-007 nrd=0.62709 nrs=0.576923  $(-84.415 43.805 -84.285 44.195)
MU9413/2/18 U9413/2/14 U9413/2/13 G_DS G_DS pch sa=-1 sb=-1 w=3e-007 l=1.3e-007 as=7.33696e-014 ad=1.395e-013 pd=1.53e-006 ps=7.30435e-007 nrd=1.55 nrs=0.815217  $(-83.835 43.805 -83.705 44.105)
MU9413/2/19 wrData[30] U9413/2/14 G_DS G_DS pch sa=-1 sb=-1 w=3e-007 l=1.3e-007 as=1.395e-013 ad=1.395e-013 pd=1.53e-006 ps=1.53e-006 nrd=1.55 nrs=1.55  $(-82.745 43.805 -82.615 44.105)
MU9413/2/20 U9413/2/reg_r_shiftReg_31_/QB U9413/2/13 G_DS G_DS pch sa=-1 sb=-1 w=3e-007 l=1.3e-007 as=1.395e-013 ad=1.395e-013 pd=1.53e-006 ps=1.53e-006 nrd=1.55 nrs=1.55  $(-81.655 43.805 -81.525 44.105)
MU9413/2/21 U9413/2/ix421/OUT U9413/2/ix2019/OUT G_DS G_DS pch sa=-1 sb=-1 w=2.6e-007 l=1.3e-007 as=1.365e-013 ad=7.8e-014 pd=8.4e-007 ps=1.53e-006 nrd=1.15385 nrs=2.01923  $(-80.475 43.805 -80.345 44.065)
MU9413/2/22 G_DS U9413/2/ix2021/OUT U9413/2/ix421/OUT G_DS pch sa=-1 sb=-1 w=2.6e-007 l=1.3e-007 as=7.8e-014 ad=1.365e-013 pd=1.53e-006 ps=8.4e-007 nrd=2.01923 nrs=1.15385  $(-79.895 43.805 -79.765 44.065)
MU9413/2/23 U9413/2/20 rdData[30] G_DS G_DS pch sa=-1 sb=-1 w=5.2e-007 l=1.3e-007 as=2.31e-013 ad=1.35e-013 pd=1.09e-006 ps=2.03e-006 nrd=0.49926 nrs=0.85429  $(-78.715 43.59 -78.585 44.11)
MU9413/2/24 U9413/2/ix2019/OUT wrData[30] U9413/2/20 G_DS pch sa=-1 sb=-1 w=5.2e-007 l=1.3e-007 as=1.35e-013 ad=1.35e-013 pd=1.09e-006 ps=1.09e-006 nrd=0.49926 nrs=0.49926  $(-78.135 43.59 -78.005 44.11)
MU9413/2/25 U9413/2/20 U9413/2/ix2019/D U9413/2/ix2019/OUT G_DS pch sa=-1 sb=-1 w=5.2e-007 l=1.3e-007 as=1.35e-013 ad=1.35e-013 pd=1.09e-006 ps=1.09e-006 nrd=0.49926 nrs=0.49926  $(-77.555 43.59 -77.425 44.11)
MU9413/2/26 G_DS U9413/2/ix2019/B U9413/2/20 G_DS pch sa=-1 sb=-1 w=5.2e-007 l=1.3e-007 as=1.35e-013 ad=2.31e-013 pd=2.03e-006 ps=1.09e-006 nrd=0.85429 nrs=0.49926  $(-76.975 43.59 -76.845 44.11)
MU9413/2/27 U9413/2/ix2021/OUT wrData[29] G_DS G_DS pch sa=-1 sb=-1 w=2.6e-007 l=1.3e-007 as=1.365e-013 ad=7.8e-014 pd=8.4e-007 ps=1.53e-006 nrd=1.15385 nrs=2.01923  $(-75.795 43.805 -75.665 44.065)
MU9413/2/28 G_DS U9413/2/ix2021/B U9413/2/ix2021/OUT G_DS pch sa=-1 sb=-1 w=2.6e-007 l=1.3e-007 as=7.8e-014 ad=1.365e-013 pd=1.53e-006 ps=8.4e-007 nrd=2.01923 nrs=1.15385  $(-75.215 43.805 -75.085 44.065)
MU9413/2/29 U9413/2/29 rdData[29] G_DS G_DS pch sa=-1 sb=-1 w=5.2e-007 l=1.3e-007 as=2.31e-013 ad=1.35e-013 pd=1.09e-006 ps=2.03e-006 nrd=0.49926 nrs=0.85429  $(-74.035 43.59 -73.905 44.11)
MU9413/2/30 U9413/reg_r_shiftReg_47_\Cross wrData[29] U9413/2/29 G_DS pch sa=-1 sb=-1 w=5.2e-007 l=1.3e-007 as=1.35e-013 ad=1.35e-013 pd=1.09e-006 ps=1.09e-006 nrd=0.49926 nrs=0.49926  $(-73.455 43.59 -73.325 44.11)
MU9413/2/31 U9413/2/29 U9413/2/ix2019/D U9413/reg_r_shiftReg_47_\Cross G_DS pch sa=-1 sb=-1 w=5.2e-007 l=1.3e-007 as=1.35e-013 ad=1.35e-013 pd=1.09e-006 ps=1.09e-006 nrd=0.49926 nrs=0.49926  $(-72.875 43.59 -72.745 44.11)
MU9413/2/32 G_DS U9413/2/ix2019/B U9413/2/29 G_DS pch sa=-1 sb=-1 w=5.2e-007 l=1.3e-007 as=1.35e-013 ad=2.31e-013 pd=2.03e-006 ps=1.09e-006 nrd=0.85429 nrs=0.49926  $(-72.295 43.59 -72.165 44.11)
MU9413/2/33 G_DS U9413/2/CLK U9413/2/35 G_DS pch sa=-1 sb=-1 w=3e-007 l=1.3e-007 as=1.395e-013 ad=8.1e-014 pd=8.4e-007 ps=1.53e-006 nrd=0.9 nrs=1.55  $(-71.115 43.805 -70.985 44.105)
MU9413/2/34 U9413/2/36 U9413/2/35 G_DS G_DS pch sa=-1 sb=-1 w=3e-007 l=1.3e-007 as=8.1e-014 ad=1.395e-013 pd=1.53e-006 ps=8.4e-007 nrd=1.55 nrs=0.9  $(-70.535 43.805 -70.405 44.105)
MU9413/2/35 U9413/2/37 U9413/2/ix397/OUT G_DS G_DS pch sa=-1 sb=-1 w=3.9e-007 l=1.3e-007 as=1.4625e-013 ad=7.5075e-014 pd=7.75e-007 ps=1.53e-006 nrd=0.49359 nrs=0.961538  $(-69.445 43.805 -69.315 44.195)
MU9413/2/36 U9413/2/39 U9413/2/36 U9413/2/37 G_DS pch sa=-1 sb=-1 w=3.9e-007 l=1.3e-007 as=7.5075e-014 ad=1.4625e-013 pd=1.53e-006 ps=7.75e-007 nrd=0.961538 nrs=0.49359  $(-68.93 43.805 -68.8 44.195)
MU9413/2/37 U9413/2/40 U9413/2/39 G_DS G_DS pch sa=-1 sb=-1 w=3e-007 l=1.3e-007 as=1.395e-013 ad=1.395e-013 pd=1.53e-006 ps=1.53e-006 nrd=1.55 nrs=1.55  $(-67.84 43.805 -67.71 44.105)
MU9413/2/38 U9413/2/41 U9413/2/35 U9413/2/39 G_DS pch sa=-1 sb=-1 w=3.9e-007 l=1.3e-007 as=1.4625e-013 ad=9.555e-014 pd=8.8e-007 ps=1.53e-006 nrd=0.628205 nrs=0.961538  $(-66.75 43.805 -66.62 44.195)
MU9413/2/39 G_DS U9413/2/CLB U9413/2/41 G_DS pch sa=-1 sb=-1 w=3.9e-007 l=1.3e-007 as=9.555e-014 ad=9.555e-014 pd=8.8e-007 ps=8.8e-007 nrd=0.628205 nrs=0.628205  $(-66.13 43.805 -66 44.195)
MU9413/2/40 U9413/2/41 U9413/2/40 G_DS G_DS pch sa=-1 sb=-1 w=3.9e-007 l=1.3e-007 as=9.555e-014 ad=1.4625e-013 pd=1.53e-006 ps=8.8e-007 nrd=0.961538 nrs=0.628205  $(-65.51 43.805 -65.38 44.195)
MU9413/2/41 U9413/2/42 U9413/2/40 G_DS G_DS pch sa=-1 sb=-1 w=3.9e-007 l=1.3e-007 as=1.4625e-013 ad=3.51e-014 pd=5.7e-007 ps=1.53e-006 nrd=0.230769 nrs=0.961538  $(-64.42 43.805 -64.29 44.195)
MU9413/2/42 U9413/2/43 U9413/2/35 U9413/2/42 G_DS pch sa=-1 sb=-1 w=3.9e-007 l=1.3e-007 as=3.51e-014 ad=1.4625e-013 pd=1.53e-006 ps=5.7e-007 nrd=0.961538 nrs=0.230769  $(-64.11 43.805 -63.98 44.195)
MU9413/2/43 U9413/2/44 U9413/2/43 G_DS G_DS pch sa=-1 sb=-1 w=3e-007 l=1.3e-007 as=1.395e-013 ad=1.395e-013 pd=1.53e-006 ps=1.53e-006 nrd=1.55 nrs=1.55  $(-62.4 43.805 -62.27 44.105)
MU9413/2/44 U9413/2/45 U9413/2/36 U9413/2/43 G_DS pch sa=-1 sb=-1 w=3.9e-007 l=1.3e-007 as=1.4625e-013 ad=8.775e-014 pd=8.4e-007 ps=1.53e-006 nrd=0.576923 nrs=0.961538  $(-61.31 43.805 -61.18 44.195)
MU9413/2/45 G_DS U9413/2/CLB U9413/2/45 G_DS pch sa=-1 sb=-1 w=3.9e-007 l=1.3e-007 as=8.775e-014 ad=9.53804e-014 pd=9.49565e-007 ps=8.4e-007 nrd=0.62709 nrs=0.576923  $(-60.73 43.805 -60.6 44.195)
MU9413/2/46 U9413/2/45 U9413/2/44 G_DS G_DS pch sa=-1 sb=-1 w=3e-007 l=1.3e-007 as=7.33696e-014 ad=1.395e-013 pd=1.53e-006 ps=7.30435e-007 nrd=1.55 nrs=0.815217  $(-60.15 43.805 -60.02 44.105)
MU9413/2/47 wrData[28] U9413/2/45 G_DS G_DS pch sa=-1 sb=-1 w=3e-007 l=1.3e-007 as=1.395e-013 ad=1.395e-013 pd=1.53e-006 ps=1.53e-006 nrd=1.55 nrs=1.55  $(-59.06 43.805 -58.93 44.105)
MU9413/2/48 U9413/2/reg_r_shiftReg_29_/QB U9413/2/44 G_DS G_DS pch sa=-1 sb=-1 w=3e-007 l=1.3e-007 as=1.395e-013 ad=1.395e-013 pd=1.53e-006 ps=1.53e-006 nrd=1.55 nrs=1.55  $(-57.97 43.805 -57.84 44.105)
MU9413/2/49 U9413/2/48 rdData[28] G_DS G_DS pch sa=-1 sb=-1 w=5.2e-007 l=1.3e-007 as=2.31e-013 ad=1.35e-013 pd=1.09e-006 ps=2.03e-006 nrd=0.49926 nrs=0.85429  $(-56.79 43.59 -56.66 44.11)
MU9413/2/50 U9413/2/ix2031/OUT wrData[28] U9413/2/48 G_DS pch sa=-1 sb=-1 w=5.2e-007 l=1.3e-007 as=1.35e-013 ad=1.35e-013 pd=1.09e-006 ps=1.09e-006 nrd=0.49926 nrs=0.49926  $(-56.21 43.59 -56.08 44.11)
MU9413/2/51 U9413/2/48 U9413/2/ix2019/D U9413/2/ix2031/OUT G_DS pch sa=-1 sb=-1 w=5.2e-007 l=1.3e-007 as=1.35e-013 ad=1.35e-013 pd=1.09e-006 ps=1.09e-006 nrd=0.49926 nrs=0.49926  $(-55.63 43.59 -55.5 44.11)
MU9413/2/52 G_DS U9413/2/ix2019/B U9413/2/48 G_DS pch sa=-1 sb=-1 w=5.2e-007 l=1.3e-007 as=1.35e-013 ad=2.31e-013 pd=2.03e-006 ps=1.09e-006 nrd=0.85429 nrs=0.49926  $(-55.05 43.59 -54.92 44.11)
MU9413/2/53 U9413/2/ix397/OUT U9413/2/ix2031/OUT G_DS G_DS pch sa=-1 sb=-1 w=2.6e-007 l=1.3e-007 as=1.365e-013 ad=7.8e-014 pd=8.4e-007 ps=1.53e-006 nrd=1.15385 nrs=2.01923  $(-53.87 43.805 -53.74 44.065)
MU9413/2/54 G_DS U9413/2/ix2033/OUT U9413/2/ix397/OUT G_DS pch sa=-1 sb=-1 w=2.6e-007 l=1.3e-007 as=7.8e-014 ad=1.365e-013 pd=1.53e-006 ps=8.4e-007 nrd=2.01923 nrs=1.15385  $(-53.29 43.805 -53.16 44.065)
MU9413/2/55 U9413/2/ix2033/OUT wrData[27] G_DS G_DS pch sa=-1 sb=-1 w=2.6e-007 l=1.3e-007 as=1.365e-013 ad=7.8e-014 pd=8.4e-007 ps=1.53e-006 nrd=1.15385 nrs=2.01923  $(-52.11 43.805 -51.98 44.065)
MU9413/2/56 G_DS U9413/2/ix2021/B U9413/2/ix2033/OUT G_DS pch sa=-1 sb=-1 w=2.6e-007 l=1.3e-007 as=7.8e-014 ad=1.365e-013 pd=1.53e-006 ps=8.4e-007 nrd=2.01923 nrs=1.15385  $(-51.53 43.805 -51.4 44.065)
MU9413/2/57 U9413/2/60 rdData[26] G_DS G_DS pch sa=-1 sb=-1 w=5.2e-007 l=1.3e-007 as=2.31e-013 ad=1.35e-013 pd=1.09e-006 ps=2.03e-006 nrd=0.49926 nrs=0.85429  $(-50.35 43.59 -50.22 44.11)
MU9413/2/58 U9413/2/ix2043/OUT wrData[26] U9413/2/60 G_DS pch sa=-1 sb=-1 w=5.2e-007 l=1.3e-007 as=1.35e-013 ad=1.35e-013 pd=1.09e-006 ps=1.09e-006 nrd=0.49926 nrs=0.49926  $(-49.77 43.59 -49.64 44.11)
MU9413/2/59 U9413/2/60 U9413/2/ix2019/D U9413/2/ix2043/OUT G_DS pch sa=-1 sb=-1 w=5.2e-007 l=1.3e-007 as=1.35e-013 ad=1.35e-013 pd=1.09e-006 ps=1.09e-006 nrd=0.49926 nrs=0.49926  $(-49.19 43.59 -49.06 44.11)
MU9413/2/60 G_DS U9413/2/ix2019/B U9413/2/60 G_DS pch sa=-1 sb=-1 w=5.2e-007 l=1.3e-007 as=1.35e-013 ad=2.31e-013 pd=2.03e-006 ps=1.09e-006 nrd=0.85429 nrs=0.49926  $(-48.61 43.59 -48.48 44.11)
MU9413/2/61 U9413/2/ix373/OUT U9413/2/ix2043/OUT G_DS G_DS pch sa=-1 sb=-1 w=2.6e-007 l=1.3e-007 as=1.365e-013 ad=7.8e-014 pd=8.4e-007 ps=1.53e-006 nrd=1.15385 nrs=2.01923  $(-47.43 43.805 -47.3 44.065)
MU9413/2/62 G_DS U9413/2/ix2045/OUT U9413/2/ix373/OUT G_DS pch sa=-1 sb=-1 w=2.6e-007 l=1.3e-007 as=7.8e-014 ad=1.365e-013 pd=1.53e-006 ps=8.4e-007 nrd=2.01923 nrs=1.15385  $(-46.85 43.805 -46.72 44.065)
MU9413/2/63 U9413/2/ix2045/OUT wrData[25] G_DS G_DS pch sa=-1 sb=-1 w=2.6e-007 l=1.3e-007 as=1.365e-013 ad=7.8e-014 pd=8.4e-007 ps=1.53e-006 nrd=1.15385 nrs=2.01923  $(-45.67 43.805 -45.54 44.065)
MU9413/2/64 G_DS U9413/2/ix2045/B U9413/2/ix2045/OUT G_DS pch sa=-1 sb=-1 w=2.6e-007 l=1.3e-007 as=7.8e-014 ad=1.365e-013 pd=1.53e-006 ps=8.4e-007 nrd=2.01923 nrs=1.15385  $(-45.09 43.805 -44.96 44.065)
MU9413/2/65 U9413/2/ix2051/OUT wrData[24] G_DS G_DS pch sa=-1 sb=-1 w=2.6e-007 l=1.3e-007 as=1.365e-013 ad=7.8e-014 pd=8.4e-007 ps=1.53e-006 nrd=1.15385 nrs=2.01923  $(-43.91 43.805 -43.78 44.065)
MU9413/2/66 G_DS U9413/2/ix2045/B U9413/2/ix2051/OUT G_DS pch sa=-1 sb=-1 w=2.6e-007 l=1.3e-007 as=7.8e-014 ad=1.365e-013 pd=1.53e-006 ps=8.4e-007 nrd=2.01923 nrs=1.15385  $(-43.33 43.805 -43.2 44.065)
MU9413/2/67 U9413/2/ix361/OUT U9413/2/ix2049/OUT G_DS G_DS pch sa=-1 sb=-1 w=2.6e-007 l=1.3e-007 as=1.365e-013 ad=7.8e-014 pd=8.4e-007 ps=1.53e-006 nrd=1.15385 nrs=2.01923  $(-42.15 43.805 -42.02 44.065)
MU9413/2/68 G_DS U9413/2/ix2051/OUT U9413/2/ix361/OUT G_DS pch sa=-1 sb=-1 w=2.6e-007 l=1.3e-007 as=7.8e-014 ad=1.365e-013 pd=1.53e-006 ps=8.4e-007 nrd=2.01923 nrs=1.15385  $(-41.57 43.805 -41.44 44.065)
MU9413/2/69 U9413/2/78 rdData[25] G_DS G_DS pch sa=-1 sb=-1 w=5.2e-007 l=1.3e-007 as=2.31e-013 ad=1.35e-013 pd=1.09e-006 ps=2.03e-006 nrd=0.49926 nrs=0.85429  $(-40.39 43.59 -40.26 44.11)
MU9413/2/70 U9413/2/ix2049/OUT wrData[25] U9413/2/78 G_DS pch sa=-1 sb=-1 w=5.2e-007 l=1.3e-007 as=1.35e-013 ad=1.35e-013 pd=1.09e-006 ps=1.09e-006 nrd=0.49926 nrs=0.49926  $(-39.81 43.59 -39.68 44.11)
MU9413/2/71 U9413/2/78 U9413/2/ix2019/D U9413/2/ix2049/OUT G_DS pch sa=-1 sb=-1 w=5.2e-007 l=1.3e-007 as=1.35e-013 ad=1.35e-013 pd=1.09e-006 ps=1.09e-006 nrd=0.49926 nrs=0.49926  $(-39.23 43.59 -39.1 44.11)
MU9413/2/72 G_DS U9413/2/ix2019/B U9413/2/78 G_DS pch sa=-1 sb=-1 w=5.2e-007 l=1.3e-007 as=1.35e-013 ad=2.31e-013 pd=2.03e-006 ps=1.09e-006 nrd=0.85429 nrs=0.49926  $(-38.65 43.59 -38.52 44.11)
MU9413/2/73 G_DS U9413/2/CLK U9413/2/84 G_DS pch sa=-1 sb=-1 w=3e-007 l=1.3e-007 as=1.395e-013 ad=8.1e-014 pd=8.4e-007 ps=1.53e-006 nrd=0.9 nrs=1.55  $(-37.47 43.805 -37.34 44.105)
MU9413/2/74 U9413/2/85 U9413/2/84 G_DS G_DS pch sa=-1 sb=-1 w=3e-007 l=1.3e-007 as=8.1e-014 ad=1.395e-013 pd=1.53e-006 ps=8.4e-007 nrd=1.55 nrs=0.9  $(-36.89 43.805 -36.76 44.105)
MU9413/2/75 U9413/2/86 U9413/2/ix361/OUT G_DS G_DS pch sa=-1 sb=-1 w=3.9e-007 l=1.3e-007 as=1.4625e-013 ad=7.5075e-014 pd=7.75e-007 ps=1.53e-006 nrd=0.49359 nrs=0.961538  $(-35.8 43.805 -35.67 44.195)
MU9413/2/76 U9413/2/88 U9413/2/85 U9413/2/86 G_DS pch sa=-1 sb=-1 w=3.9e-007 l=1.3e-007 as=7.5075e-014 ad=1.4625e-013 pd=1.53e-006 ps=7.75e-007 nrd=0.961538 nrs=0.49359  $(-35.285 43.805 -35.155 44.195)
MU9413/2/77 U9413/2/89 U9413/2/88 G_DS G_DS pch sa=-1 sb=-1 w=3e-007 l=1.3e-007 as=1.395e-013 ad=1.395e-013 pd=1.53e-006 ps=1.53e-006 nrd=1.55 nrs=1.55  $(-34.195 43.805 -34.065 44.105)
MU9413/2/78 U9413/2/90 U9413/2/84 U9413/2/88 G_DS pch sa=-1 sb=-1 w=3.9e-007 l=1.3e-007 as=1.4625e-013 ad=9.555e-014 pd=8.8e-007 ps=1.53e-006 nrd=0.628205 nrs=0.961538  $(-33.105 43.805 -32.975 44.195)
MU9413/2/79 G_DS U9413/2/CLB U9413/2/90 G_DS pch sa=-1 sb=-1 w=3.9e-007 l=1.3e-007 as=9.555e-014 ad=9.555e-014 pd=8.8e-007 ps=8.8e-007 nrd=0.628205 nrs=0.628205  $(-32.485 43.805 -32.355 44.195)
MU9413/2/80 U9413/2/90 U9413/2/89 G_DS G_DS pch sa=-1 sb=-1 w=3.9e-007 l=1.3e-007 as=9.555e-014 ad=1.4625e-013 pd=1.53e-006 ps=8.8e-007 nrd=0.961538 nrs=0.628205  $(-31.865 43.805 -31.735 44.195)
MU9413/2/81 U9413/2/91 U9413/2/89 G_DS G_DS pch sa=-1 sb=-1 w=3.9e-007 l=1.3e-007 as=1.4625e-013 ad=3.51e-014 pd=5.7e-007 ps=1.53e-006 nrd=0.230769 nrs=0.961538  $(-30.775 43.805 -30.645 44.195)
MU9413/2/82 U9413/2/92 U9413/2/84 U9413/2/91 G_DS pch sa=-1 sb=-1 w=3.9e-007 l=1.3e-007 as=3.51e-014 ad=1.4625e-013 pd=1.53e-006 ps=5.7e-007 nrd=0.961538 nrs=0.230769  $(-30.465 43.805 -30.335 44.195)
MU9413/2/83 U9413/2/93 U9413/2/92 G_DS G_DS pch sa=-1 sb=-1 w=3e-007 l=1.3e-007 as=1.395e-013 ad=1.395e-013 pd=1.53e-006 ps=1.53e-006 nrd=1.55 nrs=1.55  $(-28.755 43.805 -28.625 44.105)
MU9413/2/84 U9413/2/94 U9413/2/85 U9413/2/92 G_DS pch sa=-1 sb=-1 w=3.9e-007 l=1.3e-007 as=1.4625e-013 ad=8.775e-014 pd=8.4e-007 ps=1.53e-006 nrd=0.576923 nrs=0.961538  $(-27.665 43.805 -27.535 44.195)
MU9413/2/85 G_DS U9413/2/CLB U9413/2/94 G_DS pch sa=-1 sb=-1 w=3.9e-007 l=1.3e-007 as=8.775e-014 ad=9.53804e-014 pd=9.49565e-007 ps=8.4e-007 nrd=0.62709 nrs=0.576923  $(-27.085 43.805 -26.955 44.195)
MU9413/2/86 U9413/2/94 U9413/2/93 G_DS G_DS pch sa=-1 sb=-1 w=3e-007 l=1.3e-007 as=7.33696e-014 ad=1.395e-013 pd=1.53e-006 ps=7.30435e-007 nrd=1.55 nrs=0.815217  $(-26.505 43.805 -26.375 44.105)
MU9413/2/87 wrData[25] U9413/2/94 G_DS G_DS pch sa=-1 sb=-1 w=3e-007 l=1.3e-007 as=1.395e-013 ad=1.395e-013 pd=1.53e-006 ps=1.53e-006 nrd=1.55 nrs=1.55  $(-25.415 43.805 -25.285 44.105)
MU9413/2/88 U9413/2/reg_r_shiftReg_26_/QB U9413/2/93 G_DS G_DS pch sa=-1 sb=-1 w=3e-007 l=1.3e-007 as=1.395e-013 ad=1.395e-013 pd=1.53e-006 ps=1.53e-006 nrd=1.55 nrs=1.55  $(-24.325 43.805 -24.195 44.105)
MU9413/2/89 U9413/2/97 rdData[23] G_DS G_DS pch sa=-1 sb=-1 w=5.2e-007 l=1.3e-007 as=2.31e-013 ad=1.35e-013 pd=1.09e-006 ps=2.03e-006 nrd=0.49926 nrs=0.85429  $(-23.145 43.59 -23.015 44.11)
MU9413/2/90 U9413/2/ix2061/OUT wrData[23] U9413/2/97 G_DS pch sa=-1 sb=-1 w=5.2e-007 l=1.3e-007 as=1.35e-013 ad=1.35e-013 pd=1.09e-006 ps=1.09e-006 nrd=0.49926 nrs=0.49926  $(-22.565 43.59 -22.435 44.11)
MU9413/2/91 U9413/2/97 U9413/2/ix2019/D U9413/2/ix2061/OUT G_DS pch sa=-1 sb=-1 w=5.2e-007 l=1.3e-007 as=1.35e-013 ad=1.35e-013 pd=1.09e-006 ps=1.09e-006 nrd=0.49926 nrs=0.49926  $(-21.985 43.59 -21.855 44.11)
MU9413/2/92 G_DS U9413/2/ix2019/B U9413/2/97 G_DS pch sa=-1 sb=-1 w=5.2e-007 l=1.3e-007 as=1.35e-013 ad=2.31e-013 pd=2.03e-006 ps=1.09e-006 nrd=0.85429 nrs=0.49926  $(-21.405 43.59 -21.275 44.11)
MU9413/2/93 G_DS U9413/2/CLK U9413/2/103 G_DS pch sa=-1 sb=-1 w=3e-007 l=1.3e-007 as=1.395e-013 ad=8.1e-014 pd=8.4e-007 ps=1.53e-006 nrd=0.9 nrs=1.55  $(-20.225 43.805 -20.095 44.105)
MU9413/2/94 U9413/2/104 U9413/2/103 G_DS G_DS pch sa=-1 sb=-1 w=3e-007 l=1.3e-007 as=8.1e-014 ad=1.395e-013 pd=1.53e-006 ps=8.4e-007 nrd=1.55 nrs=0.9  $(-19.645 43.805 -19.515 44.105)
MU9413/2/95 U9413/2/105 U9413/2/ix325/OUT G_DS G_DS pch sa=-1 sb=-1 w=3.9e-007 l=1.3e-007 as=1.4625e-013 ad=7.5075e-014 pd=7.75e-007 ps=1.53e-006 nrd=0.49359 nrs=0.961538  $(-18.555 43.805 -18.425 44.195)
MU9413/2/96 U9413/2/107 U9413/2/104 U9413/2/105 G_DS pch sa=-1 sb=-1 w=3.9e-007 l=1.3e-007 as=7.5075e-014 ad=1.4625e-013 pd=1.53e-006 ps=7.75e-007 nrd=0.961538 nrs=0.49359  $(-18.04 43.805 -17.91 44.195)
MU9413/2/97 U9413/2/108 U9413/2/107 G_DS G_DS pch sa=-1 sb=-1 w=3e-007 l=1.3e-007 as=1.395e-013 ad=1.395e-013 pd=1.53e-006 ps=1.53e-006 nrd=1.55 nrs=1.55  $(-16.95 43.805 -16.82 44.105)
MU9413/2/98 U9413/2/109 U9413/2/103 U9413/2/107 G_DS pch sa=-1 sb=-1 w=3.9e-007 l=1.3e-007 as=1.4625e-013 ad=9.555e-014 pd=8.8e-007 ps=1.53e-006 nrd=0.628205 nrs=0.961538  $(-15.86 43.805 -15.73 44.195)
MU9413/2/99 G_DS U9413/2/CLB U9413/2/109 G_DS pch sa=-1 sb=-1 w=3.9e-007 l=1.3e-007 as=9.555e-014 ad=9.555e-014 pd=8.8e-007 ps=8.8e-007 nrd=0.628205 nrs=0.628205  $(-15.24 43.805 -15.11 44.195)
MU9413/2/100 U9413/2/109 U9413/2/108 G_DS G_DS pch sa=-1 sb=-1 w=3.9e-007 l=1.3e-007 as=9.555e-014 ad=1.4625e-013 pd=1.53e-006 ps=8.8e-007 nrd=0.961538 nrs=0.628205  $(-14.62 43.805 -14.49 44.195)
MU9413/2/101 U9413/2/110 U9413/2/108 G_DS G_DS pch sa=-1 sb=-1 w=3.9e-007 l=1.3e-007 as=1.4625e-013 ad=3.51e-014 pd=5.7e-007 ps=1.53e-006 nrd=0.230769 nrs=0.961538  $(-13.53 43.805 -13.4 44.195)
MU9413/2/102 U9413/2/111 U9413/2/103 U9413/2/110 G_DS pch sa=-1 sb=-1 w=3.9e-007 l=1.3e-007 as=3.51e-014 ad=1.4625e-013 pd=1.53e-006 ps=5.7e-007 nrd=0.961538 nrs=0.230769  $(-13.22 43.805 -13.09 44.195)
MU9413/2/103 U9413/2/112 U9413/2/111 G_DS G_DS pch sa=-1 sb=-1 w=3e-007 l=1.3e-007 as=1.395e-013 ad=1.395e-013 pd=1.53e-006 ps=1.53e-006 nrd=1.55 nrs=1.55  $(-11.51 43.805 -11.38 44.105)
MU9413/2/104 U9413/2/113 U9413/2/104 U9413/2/111 G_DS pch sa=-1 sb=-1 w=3.9e-007 l=1.3e-007 as=1.4625e-013 ad=8.775e-014 pd=8.4e-007 ps=1.53e-006 nrd=0.576923 nrs=0.961538  $(-10.42 43.805 -10.29 44.195)
MU9413/2/105 G_DS U9413/2/CLB U9413/2/113 G_DS pch sa=-1 sb=-1 w=3.9e-007 l=1.3e-007 as=8.775e-014 ad=9.53804e-014 pd=9.49565e-007 ps=8.4e-007 nrd=0.62709 nrs=0.576923  $(-9.84 43.805 -9.71 44.195)
MU9413/2/106 U9413/2/113 U9413/2/112 G_DS G_DS pch sa=-1 sb=-1 w=3e-007 l=1.3e-007 as=7.33696e-014 ad=1.395e-013 pd=1.53e-006 ps=7.30435e-007 nrd=1.55 nrs=0.815217  $(-9.26 43.805 -9.13 44.105)
MU9413/2/107 wrData[22] U9413/2/113 G_DS G_DS pch sa=-1 sb=-1 w=3e-007 l=1.3e-007 as=1.395e-013 ad=1.395e-013 pd=1.53e-006 ps=1.53e-006 nrd=1.55 nrs=1.55  $(-8.17 43.805 -8.04 44.105)
MU9413/2/108 U9413/2/reg_r_shiftReg_23_/QB U9413/2/112 G_DS G_DS pch sa=-1 sb=-1 w=3e-007 l=1.3e-007 as=1.395e-013 ad=1.395e-013 pd=1.53e-006 ps=1.53e-006 nrd=1.55 nrs=1.55  $(-7.08 43.805 -6.95 44.105)
MU9413/2/109 U9413/2/116 rdData[22] G_DS G_DS pch sa=-1 sb=-1 w=5.2e-007 l=1.3e-007 as=2.31e-013 ad=1.35e-013 pd=1.09e-006 ps=2.03e-006 nrd=0.49926 nrs=0.85429  $(-5.9 43.59 -5.77 44.11)
MU9413/2/110 U9413/2/ix2067/OUT wrData[22] U9413/2/116 G_DS pch sa=-1 sb=-1 w=5.2e-007 l=1.3e-007 as=1.35e-013 ad=1.35e-013 pd=1.09e-006 ps=1.09e-006 nrd=0.49926 nrs=0.49926  $(-5.32 43.59 -5.19 44.11)
MU9413/2/111 U9413/2/116 U9413/2/ix2067/D U9413/2/ix2067/OUT G_DS pch sa=-1 sb=-1 w=5.2e-007 l=1.3e-007 as=1.35e-013 ad=1.35e-013 pd=1.09e-006 ps=1.09e-006 nrd=0.49926 nrs=0.49926  $(-4.74 43.59 -4.61 44.11)
MU9413/2/112 G_DS U9413/2/ix2067/B U9413/2/116 G_DS pch sa=-1 sb=-1 w=5.2e-007 l=1.3e-007 as=1.35e-013 ad=2.31e-013 pd=2.03e-006 ps=1.09e-006 nrd=0.85429 nrs=0.49926  $(-4.16 43.59 -4.03 44.11)
MU9413/2/113 U9413/2/ix325/OUT U9413/2/ix2067/OUT G_DS G_DS pch sa=-1 sb=-1 w=2.6e-007 l=1.3e-007 as=1.365e-013 ad=7.8e-014 pd=8.4e-007 ps=1.53e-006 nrd=1.15385 nrs=2.01923  $(-2.98 43.805 -2.85 44.065)
MU9413/2/114 G_DS U9413/2/ix2069/OUT U9413/2/ix325/OUT G_DS pch sa=-1 sb=-1 w=2.6e-007 l=1.3e-007 as=7.8e-014 ad=1.365e-013 pd=1.53e-006 ps=8.4e-007 nrd=2.01923 nrs=1.15385  $(-2.4 43.805 -2.27 44.065)
MU9413/2/115 U9413/2/ix2069/OUT wrData[21] G_DS G_DS pch sa=-1 sb=-1 w=2.6e-007 l=1.3e-007 as=1.365e-013 ad=7.8e-014 pd=8.4e-007 ps=1.53e-006 nrd=1.15385 nrs=2.01923  $(-1.22 43.805 -1.09 44.065)
MU9413/2/116 G_DS U9413/2/ix2045/B U9413/2/ix2069/OUT G_DS pch sa=-1 sb=-1 w=2.6e-007 l=1.3e-007 as=7.8e-014 ad=1.365e-013 pd=1.53e-006 ps=8.4e-007 nrd=2.01923 nrs=1.15385  $(-0.64 43.805 -0.51 44.065)
MU9413/2/117 U9413/2/128 rdData[20] G_DS G_DS pch sa=-1 sb=-1 w=5.2e-007 l=1.3e-007 as=2.31e-013 ad=1.35e-013 pd=1.09e-006 ps=2.03e-006 nrd=0.49926 nrs=0.85429  $(0.54 43.59 0.67 44.11)
MU9413/2/118 U9413/2/ix2079/OUT wrData[20] U9413/2/128 G_DS pch sa=-1 sb=-1 w=5.2e-007 l=1.3e-007 as=1.35e-013 ad=1.35e-013 pd=1.09e-006 ps=1.09e-006 nrd=0.49926 nrs=0.49926  $(1.12 43.59 1.25 44.11)
MU9413/2/119 U9413/2/128 U9413/2/ix2067/D U9413/2/ix2079/OUT G_DS pch sa=-1 sb=-1 w=5.2e-007 l=1.3e-007 as=1.35e-013 ad=1.35e-013 pd=1.09e-006 ps=1.09e-006 nrd=0.49926 nrs=0.49926  $(1.7 43.59 1.83 44.11)
MU9413/2/120 G_DS U9413/2/ix2067/B U9413/2/128 G_DS pch sa=-1 sb=-1 w=5.2e-007 l=1.3e-007 as=1.35e-013 ad=2.31e-013 pd=2.03e-006 ps=1.09e-006 nrd=0.85429 nrs=0.49926  $(2.28 43.59 2.41 44.11)
MU9413/2/121 U9413/2/134 rdData[19] G_DS G_DS pch sa=-1 sb=-1 w=5.2e-007 l=1.3e-007 as=2.31e-013 ad=1.35e-013 pd=1.09e-006 ps=2.03e-006 nrd=0.49926 nrs=0.85429  $(3.46 43.59 3.59 44.11)
MU9413/2/122 U9413/2/ix2085/OUT wrData[19] U9413/2/134 G_DS pch sa=-1 sb=-1 w=5.2e-007 l=1.3e-007 as=1.35e-013 ad=1.35e-013 pd=1.09e-006 ps=1.09e-006 nrd=0.49926 nrs=0.49926  $(4.04 43.59 4.17 44.11)
MU9413/2/123 U9413/2/134 U9413/2/ix2067/D U9413/2/ix2085/OUT G_DS pch sa=-1 sb=-1 w=5.2e-007 l=1.3e-007 as=1.35e-013 ad=1.35e-013 pd=1.09e-006 ps=1.09e-006 nrd=0.49926 nrs=0.49926  $(4.62 43.59 4.75 44.11)
MU9413/2/124 G_DS U9413/2/ix2067/B U9413/2/134 G_DS pch sa=-1 sb=-1 w=5.2e-007 l=1.3e-007 as=1.35e-013 ad=2.31e-013 pd=2.03e-006 ps=1.09e-006 nrd=0.85429 nrs=0.49926  $(5.2 43.59 5.33 44.11)
MU9413/2/125 U9413/2/ix289/OUT U9413/2/ix2085/OUT G_DS G_DS pch sa=-1 sb=-1 w=2.6e-007 l=1.3e-007 as=1.365e-013 ad=7.8e-014 pd=8.4e-007 ps=1.53e-006 nrd=1.15385 nrs=2.01923  $(6.38 43.805 6.51 44.065)
MU9413/2/126 G_DS U9413/2/ix2087/OUT U9413/2/ix289/OUT G_DS pch sa=-1 sb=-1 w=2.6e-007 l=1.3e-007 as=7.8e-014 ad=1.365e-013 pd=1.53e-006 ps=8.4e-007 nrd=2.01923 nrs=1.15385  $(6.96 43.805 7.09 44.065)
MU9413/2/127 U9413/2/ix2087/OUT wrData[18] G_DS G_DS pch sa=-1 sb=-1 w=2.6e-007 l=1.3e-007 as=1.365e-013 ad=7.8e-014 pd=8.4e-007 ps=1.53e-006 nrd=1.15385 nrs=2.01923  $(8.14 43.805 8.27 44.065)
MU9413/2/128 G_DS U9413/2/ix2045/B U9413/2/ix2087/OUT G_DS pch sa=-1 sb=-1 w=2.6e-007 l=1.3e-007 as=7.8e-014 ad=1.365e-013 pd=1.53e-006 ps=8.4e-007 nrd=2.01923 nrs=1.15385  $(8.72 43.805 8.85 44.065)
MU9413/2/129 U9413/2/146 rdData[18] G_DS G_DS pch sa=-1 sb=-1 w=5.2e-007 l=1.3e-007 as=2.31e-013 ad=1.35e-013 pd=1.09e-006 ps=2.03e-006 nrd=0.49926 nrs=0.85429  $(9.9 43.59 10.03 44.11)
MU9413/2/130 U9413/2/ix2091/OUT wrData[18] U9413/2/146 G_DS pch sa=-1 sb=-1 w=5.2e-007 l=1.3e-007 as=1.35e-013 ad=1.35e-013 pd=1.09e-006 ps=1.09e-006 nrd=0.49926 nrs=0.49926  $(10.48 43.59 10.61 44.11)
MU9413/2/131 U9413/2/146 U9413/2/ix2067/D U9413/2/ix2091/OUT G_DS pch sa=-1 sb=-1 w=5.2e-007 l=1.3e-007 as=1.35e-013 ad=1.35e-013 pd=1.09e-006 ps=1.09e-006 nrd=0.49926 nrs=0.49926  $(11.06 43.59 11.19 44.11)
MU9413/2/132 G_DS U9413/2/ix2067/B U9413/2/146 G_DS pch sa=-1 sb=-1 w=5.2e-007 l=1.3e-007 as=1.35e-013 ad=2.31e-013 pd=2.03e-006 ps=1.09e-006 nrd=0.85429 nrs=0.49926  $(11.64 43.59 11.77 44.11)
MU9413/2/133 U9413/2/ix277/OUT U9413/2/ix2091/OUT G_DS G_DS pch sa=-1 sb=-1 w=2.6e-007 l=1.3e-007 as=1.365e-013 ad=7.8e-014 pd=8.4e-007 ps=1.53e-006 nrd=1.15385 nrs=2.01923  $(12.82 43.805 12.95 44.065)
MU9413/2/134 G_DS U9413/2/ix2093/OUT U9413/2/ix277/OUT G_DS pch sa=-1 sb=-1 w=2.6e-007 l=1.3e-007 as=7.8e-014 ad=1.365e-013 pd=1.53e-006 ps=8.4e-007 nrd=2.01923 nrs=1.15385  $(13.4 43.805 13.53 44.065)
MU9413/2/135 U9413/2/ix2093/OUT wrData[17] G_DS G_DS pch sa=-1 sb=-1 w=2.6e-007 l=1.3e-007 as=1.365e-013 ad=7.8e-014 pd=8.4e-007 ps=1.53e-006 nrd=1.15385 nrs=2.01923  $(14.58 43.805 14.71 44.065)
MU9413/2/136 G_DS U9413/2/ix2093/B U9413/2/ix2093/OUT G_DS pch sa=-1 sb=-1 w=2.6e-007 l=1.3e-007 as=7.8e-014 ad=1.365e-013 pd=1.53e-006 ps=8.4e-007 nrd=2.01923 nrs=1.15385  $(15.16 43.805 15.29 44.065)
MU9413/2/137 G_DS U9413/2/CLK U9413/2/158 G_DS pch sa=-1 sb=-1 w=3e-007 l=1.3e-007 as=1.395e-013 ad=8.1e-014 pd=8.4e-007 ps=1.53e-006 nrd=0.9 nrs=1.55  $(16.34 43.805 16.47 44.105)
MU9413/2/138 U9413/2/159 U9413/2/158 G_DS G_DS pch sa=-1 sb=-1 w=3e-007 l=1.3e-007 as=8.1e-014 ad=1.395e-013 pd=1.53e-006 ps=8.4e-007 nrd=1.55 nrs=0.9  $(16.92 43.805 17.05 44.105)
MU9413/2/139 U9413/2/160 U9413/2/ix277/OUT G_DS G_DS pch sa=-1 sb=-1 w=3.9e-007 l=1.3e-007 as=1.4625e-013 ad=7.5075e-014 pd=7.75e-007 ps=1.53e-006 nrd=0.49359 nrs=0.961538  $(18.01 43.805 18.14 44.195)
MU9413/2/140 U9413/2/162 U9413/2/159 U9413/2/160 G_DS pch sa=-1 sb=-1 w=3.9e-007 l=1.3e-007 as=7.5075e-014 ad=1.4625e-013 pd=1.53e-006 ps=7.75e-007 nrd=0.961538 nrs=0.49359  $(18.525 43.805 18.655 44.195)
MU9413/2/141 U9413/2/163 U9413/2/162 G_DS G_DS pch sa=-1 sb=-1 w=3e-007 l=1.3e-007 as=1.395e-013 ad=1.395e-013 pd=1.53e-006 ps=1.53e-006 nrd=1.55 nrs=1.55  $(19.615 43.805 19.745 44.105)
MU9413/2/142 U9413/2/164 U9413/2/158 U9413/2/162 G_DS pch sa=-1 sb=-1 w=3.9e-007 l=1.3e-007 as=1.4625e-013 ad=9.555e-014 pd=8.8e-007 ps=1.53e-006 nrd=0.628205 nrs=0.961538  $(20.705 43.805 20.835 44.195)
MU9413/2/143 G_DS U9413/2/CLB U9413/2/164 G_DS pch sa=-1 sb=-1 w=3.9e-007 l=1.3e-007 as=9.555e-014 ad=9.555e-014 pd=8.8e-007 ps=8.8e-007 nrd=0.628205 nrs=0.628205  $(21.325 43.805 21.455 44.195)
MU9413/2/144 U9413/2/164 U9413/2/163 G_DS G_DS pch sa=-1 sb=-1 w=3.9e-007 l=1.3e-007 as=9.555e-014 ad=1.4625e-013 pd=1.53e-006 ps=8.8e-007 nrd=0.961538 nrs=0.628205  $(21.945 43.805 22.075 44.195)
MU9413/2/145 U9413/2/165 U9413/2/163 G_DS G_DS pch sa=-1 sb=-1 w=3.9e-007 l=1.3e-007 as=1.4625e-013 ad=3.51e-014 pd=5.7e-007 ps=1.53e-006 nrd=0.230769 nrs=0.961538  $(23.035 43.805 23.165 44.195)
MU9413/2/146 U9413/2/166 U9413/2/158 U9413/2/165 G_DS pch sa=-1 sb=-1 w=3.9e-007 l=1.3e-007 as=3.51e-014 ad=1.4625e-013 pd=1.53e-006 ps=5.7e-007 nrd=0.961538 nrs=0.230769  $(23.345 43.805 23.475 44.195)
MU9413/2/147 U9413/2/167 U9413/2/166 G_DS G_DS pch sa=-1 sb=-1 w=3e-007 l=1.3e-007 as=1.395e-013 ad=1.395e-013 pd=1.53e-006 ps=1.53e-006 nrd=1.55 nrs=1.55  $(25.055 43.805 25.185 44.105)
MU9413/2/148 U9413/2/168 U9413/2/159 U9413/2/166 G_DS pch sa=-1 sb=-1 w=3.9e-007 l=1.3e-007 as=1.4625e-013 ad=8.775e-014 pd=8.4e-007 ps=1.53e-006 nrd=0.576923 nrs=0.961538  $(26.145 43.805 26.275 44.195)